7
Energy =
P     0.1256880    0.6811688    0.0000000 
C     0.0008570   -0.4713659    1.3629606 
C    -1.6223545    1.1456037    0.0000000 
C     0.0008570   -0.4713659   -1.3629606 
N    -2.6807332    1.5919076    0.0000000 
N     0.0008570   -1.1379587    2.2975974 
N     0.0008570   -1.1379587   -2.2975974 
