12
Energy =
C    -1.1988023    0.6921288    0.0000000 
C    -1.1988023   -0.6921288    0.0000000 
C     0.0000000   -1.3842576    0.0000000 
C     1.1988023   -0.6921288    0.0000000 
C     1.1988023    0.6921288    0.0000000 
C     0.0000000    1.3842576    0.0000000 
H    -2.1331550   -1.2315776    0.0000000 
H     0.0000000   -2.4631552    0.0000000 
H     2.1331550   -1.2315776    0.0000000 
H     2.1331550    1.2315776    0.0000000 
H     0.0000000    2.4631552    0.0000000 
H    -2.1331550    1.2315776    0.0000000 
