9
Energy =
C     0.7632579    0.0000000   -0.4409810 
C    -0.7632579    0.0000000   -0.4409810 
H     1.1578429    1.0169279   -0.4409257 
H     1.1578429   -0.5085118    0.4396773 
H     1.1578429   -0.5084161   -1.3216946 
H    -1.1578429   -1.0169279   -0.4409257 
H    -1.1578429    0.5085118    0.4396773 
H    -1.1578429    0.5084161   -1.3216946 
Ar    0.0000000   -0.0000000    3.5278481 
