18
Energy =
O     1.8630162    1.9699095    0.1190794 
H     0.9056974    2.1787084    0.0238760 
H     2.1523045    2.4204188    0.9160640 
O     0.7744836   -2.5983741    0.1190794 
H     1.0199919   -3.0741598    0.9160640 
H     1.4339681   -1.8737112    0.0238760 
O     2.6374998   -0.6284646   -0.1190794 
H     2.3396656    0.3049972   -0.0238760 
H     3.1722964   -0.6537410   -0.9160640 
O    -1.8630162   -1.9699095   -0.1190794 
H    -2.1523045   -2.4204188   -0.9160640 
H    -0.9056974   -2.1787084   -0.0238760 
O    -0.7744836    2.5983741   -0.1190794 
H    -1.0199919    3.0741598   -0.9160640 
H    -1.4339681    1.8737112   -0.0238760 
O    -2.6374998    0.6284646    0.1190794 
H    -3.1722964    0.6537410    0.9160640 
H    -2.3396656   -0.3049972    0.0238760 
