7
Energy =
O    -0.3731390   -1.6064389    0.0000000 
O     0.0407518   -0.8553721    1.1331736 
O     0.0407518   -0.8553721   -1.1331736 
C     0.0407518    0.4367224    0.6601088 
C     0.0407518    0.4367224   -0.6601088 
H     0.1050658    1.2218691    1.3905295 
H     0.1050658    1.2218691   -1.3905295 
