24
Energy =
O     1.9905911   -0.1084003   -1.4652291 
H     1.3302928   -0.8467868   -1.5304519 
H     2.7035395   -0.3103452   -2.0762400 
O    -0.1084003   -1.9905911    1.4652291 
H    -0.3103452   -2.7035395    2.0762400 
H    -0.8467868   -1.3302928    1.5304519 
O    -1.9387532   -0.0255756    1.4016092 
H    -2.1724666    0.0263608    0.4583695 
H    -1.3988240    0.7670441    1.5644647 
O     0.0255756   -1.9387532   -1.4016092 
H    -0.0263608   -2.1724666   -0.4583695 
H    -0.7670441   -1.3988240   -1.5644647 
O    -0.0255756    1.9387532   -1.4016092 
H     0.7670441    1.3988240   -1.5644647 
H     0.0263608    2.1724666   -0.4583695 
O     0.1084003    1.9905911    1.4652291 
H     0.8467868    1.3302928    1.5304519 
H     0.3103452    2.7035395    2.0762400 
O    -1.9905911    0.1084003   -1.4652291 
H    -1.3302928    0.8467868   -1.5304519 
H    -2.7035395    0.3103452   -2.0762400 
O     1.9387532    0.0255756    1.4016092 
H     2.1724666   -0.0263608    0.4583695 
H     1.3988240   -0.7670441    1.5644647 
