11
Energy =
C     0.0000000    0.0000000    3.8575177 
C     0.0000000    0.0000000    2.5471201 
C     0.0000000    0.0000000    1.2769384 
C     0.0000000    0.0000000    0.0000000 
C     0.0000000    0.0000000   -1.2769384 
C     0.0000000    0.0000000   -2.5471201 
C     0.0000000    0.0000000   -3.8575177 
H    -0.6550561    0.6550561    4.4222168 
H     0.6550561   -0.6550561    4.4222168 
H    -0.6550561   -0.6550561   -4.4222168 
H     0.6550561    0.6550561   -4.4222168 
