20
Energy =
O     0.2309966   -1.7501603   -1.6137318 
H     0.3547704   -1.4268652   -2.5095198 
H    -0.4863599   -1.1511869   -1.2247679 
O    -0.8187277   -1.8096257    1.5257334 
H    -0.3247737   -2.4623293    1.0212858 
H    -1.1694889   -1.1908734    0.8176224 
O    -0.9356309    2.0631218    1.0559169 
H    -1.2826168    1.2542290    0.5973567 
H    -0.4402953    2.4787494    0.3372993 
O     1.0346387    0.3062362    2.1888664 
H     0.4723616   -0.4881286    2.1220177 
H     0.4232868    1.0226881    1.9283641 
O     0.2656542    1.7374371   -1.6823817 
H     1.0715576    1.3171856   -1.3358043 
H    -0.4373017    1.1167995   -1.3960602 
O     2.2703738   -0.0203258   -0.4001794 
H     1.9574443    0.1070627    0.5173217 
H     1.6919800   -0.7185752   -0.7539803 
O    -1.4854286   -0.1445915   -0.4478202 
H    -2.3924405   -0.2408477   -0.7475386 
