12
Energy =
O    -1.4564924    1.2872093   -0.0073689 
H    -0.4929670    1.4796927   -0.0098606 
H    -1.8194199    1.7493731    0.7521436 
O    -1.2872093   -1.4564924    0.0073689 
H    -1.4796927   -0.4929670    0.0098606 
H    -1.7493731   -1.8194199   -0.7521436 
O     1.4564924   -1.2872093   -0.0073689 
H     0.4929670   -1.4796927   -0.0098606 
H     1.8194199   -1.7493731    0.7521436 
O     1.2872093    1.4564924    0.0073689 
H     1.4796927    0.4929670    0.0098606 
H     1.7493731    1.8194199   -0.7521436 
