24
Energy =
O    -1.4645552   -1.4645552    1.3497067 
O    -1.4645552    1.4645552   -1.3497067 
O     1.4645552   -1.4645552   -1.3497067 
O     1.4645552    1.4645552    1.3497067 
H    -1.5346654   -1.5346654    0.3622554 
H    -1.5346654    1.5346654   -0.3622554 
H     1.5346654   -1.5346654   -0.3622554 
H     1.5346654    1.5346654    0.3622554 
H    -2.0896636   -2.0896636    1.7251112 
H    -2.0896636    2.0896636   -1.7251112 
H     2.0896636   -2.0896636   -1.7251112 
H     2.0896636    2.0896636    1.7251112 
O    -1.4052886   -1.4052886   -1.3390082 
O    -1.4052886    1.4052886    1.3390082 
O     1.4052886   -1.4052886    1.3390082 
O     1.4052886    1.4052886   -1.3390082 
H    -1.5526158   -0.4620645   -1.5268989 
H    -1.5526158    0.4620645    1.5268989 
H     1.5526158   -0.4620645    1.5268989 
H    -0.4620645   -1.5526158   -1.5268989 
H     0.4620645    1.5526158   -1.5268989 
H     0.4620645   -1.5526158    1.5268989 
H    -0.4620645    1.5526158    1.5268989 
H     1.5526158    0.4620645   -1.5268989 
