8
Energy =
H    -1.4579587    0.0040843    0.0244594 
O    -2.4291204    0.0733055   -0.3263151 
H     0.0000000    0.0000000    1.4813683 
H    -2.4564986    0.9567436   -0.6994170 
O     0.0000000    0.0000000    0.5211771 
H     1.4579587   -0.0040843    0.0244594 
O     2.4291204   -0.0733055   -0.3263151 
H     2.4564986   -0.9567436   -0.6994170 
