24
Energy =
C     0.1507942   -0.1215620    0.0000000 
C     0.6503769   -0.8850054    1.1865651 
C     0.1445909   -2.0885070    1.5077370 
C    -0.7466651   -2.8487730    0.6796765 
C    -0.7466651   -2.8487730   -0.6796765 
C     0.1445909   -2.0885070   -1.5077370 
C     0.6503769   -0.8850054   -1.1865651 
C     0.5837137    1.3467209    0.0000000 
C     0.0830259    2.1376983    1.1701551 
C    -0.5805527    3.2166576    0.7302882 
C    -0.5805527    3.2166576   -0.7302882 
C     0.0830259    2.1376983   -1.1701551 
H    -0.9461903   -0.1651800    0.0000000 
H     1.4282526   -0.4422766    1.8032225 
H     0.4499190   -2.5473770    2.4443393 
H    -1.3651705   -3.5910245    1.1763922 
H    -1.3651705   -3.5910245   -1.1763922 
H     0.4499190   -2.5473770   -2.4443393 
H     1.4282526   -0.4422766   -1.8032225 
H     1.6864370    1.3736899    0.0000000 
H     0.2465029    1.8578715    2.2018589 
H    -1.0476573    3.9739017    1.3468499 
H    -1.0476573    3.9739017   -1.3468499 
H     0.2465029    1.8578715   -2.2018589 
