13
Energy =
C    -1.1988023    0.6921288   -0.2788357 
C    -1.1988023   -0.6921288   -0.2788357 
C     0.0000000   -1.3842576   -0.2788357 
C     1.1988023   -0.6921288   -0.2788357 
C     1.1988023    0.6921288   -0.2788357 
C     0.0000000    1.3842576   -0.2788357 
H    -2.1331550   -1.2315776   -0.2788357 
H     0.0000000   -2.4631552   -0.2788357 
H     2.1331550   -1.2315776   -0.2788357 
H     2.1331550    1.2315776   -0.2788357 
H     0.0000000    2.4631552   -0.2788357 
H    -2.1331550    1.2315776   -0.2788357 
Ar    0.0000000    0.0000000    3.3460282 
