14
Energy =
H    -0.0267918    1.5818251    0.2834249 
H     1.5818251    0.0267918    0.2834249 
H     0.0267918   -1.5818251    0.2834249 
H    -1.5818251   -0.0267918    0.2834249 
O     0.0000000    0.0000000    0.9578999 
H     0.0000000    0.0000000    1.9177035 
O     0.0314199    2.4185664   -0.2529905 
O     2.4185664   -0.0314199   -0.2529905 
O    -0.0314199   -2.4185664   -0.2529905 
O    -2.4185664    0.0314199   -0.2529905 
H     0.8430480    2.2785225   -0.7493353 
H     2.2785225   -0.8430480   -0.7493353 
H    -0.8430480   -2.2785225   -0.7493353 
H    -2.2785225    0.8430480   -0.7493353 
