18
Energy =
O     0.1144839    1.5112333    0.8435130 
H     0.9588057    1.4715580    0.3295002 
H     0.2612910    2.1241091    1.5685011 
O    -0.0281704   -1.4370823    0.9851182 
H    -0.0383127   -0.4862320    1.1718938 
H    -0.8642499   -1.5983938    0.5055884 
O    -2.3537981    1.3280181   -0.4618208 
H    -1.4871423    1.5019404   -0.0453109 
H    -2.3472534    1.7941650   -1.3012567 
O    -2.4676711   -1.4576027   -0.4185461 
H    -2.5397542   -0.4850372   -0.4964169 
H    -3.2602900   -1.7456420    0.0408062 
O     2.4264495    1.1481600   -0.4958637 
H     2.4838349    0.1618456   -0.5091494 
H     2.5261922    1.4338488   -1.4071863 
O     2.2762914   -1.5490049   -0.4262672 
H     1.4225637   -1.6349539    0.0649769 
H     2.9167296   -2.0809295    0.0519201 
