9
Energy =
O    -0.6015578   -1.6259005    0.0000000 
O     0.0716080   -1.0609447    1.0901036 
O     0.0716080   -1.0609447   -1.0901036 
C     0.0716080    0.3180538    0.7706417 
C     0.0716080    0.3180538   -0.7706417 
H    -0.8151927    0.8154326    1.1676606 
H    -0.8151927    0.8154326   -1.1676606 
H     0.9727557    0.7404086    1.2093856 
H     0.9727557    0.7404086   -1.2093856 
