60
Energy =
O    -0.4674337   -1.4156432    2.3424832 
H    -0.5103881   -0.5327785    2.7383509 
H    -1.1543710   -1.4135419    1.6390602 
O    -1.1804953   -4.4114890   -2.0217879 
H    -1.6005951   -5.0804995   -2.5684061 
H    -1.6296589   -4.4443491   -1.1306922 
O    -0.3890822   -4.3416186    2.3649217 
H    -0.4122318   -3.4254374    2.6780297 
H     0.4954470   -4.4516812    1.9766411 
O    -2.3708270   -1.4010748    0.3317388 
H    -2.7687053   -0.5190604    0.3764393 
H    -1.9008133   -1.4312776   -0.5314561 
O    -1.0412215   -1.5773429   -2.0898648 
H    -0.0740952   -1.5478577   -1.9182976 
H    -1.2210828   -2.5028893   -2.3334269 
O     1.6403031   -4.3519848   -1.6030968 
H     0.6907637   -4.4791178   -1.7864600 
H     1.8234428   -3.4332488   -1.8548591 
O    -2.3324640   -4.3191108    0.3710663 
H    -1.6749165   -4.4161499    1.0945673 
H    -2.6633440   -3.4130595    0.4587135 
O     1.6787401   -1.4676579   -1.5895498 
H     1.8042491   -1.4683808   -0.6135222 
H     1.9691284   -0.5921861   -1.8871045 
O     2.0177788   -1.5700244    1.1457336 
H     1.1343262   -1.5367783    1.5764315 
H     2.3187166   -2.4899023    1.2541941 
O     2.1824622   -4.3930741    1.0311736 
H     2.8554348   -5.0463468    1.2384494 
H     2.0031126   -4.4627308    0.0573709 
O    -0.4152401    4.3842505    2.2876138 
H    -0.5679834    5.0653700    2.9479304 
H    -1.1127701    4.4876540    1.6038264 
O    -1.1046614    1.2760042   -2.0786808 
H    -1.2737935    0.3860585   -2.4278927 
H    -1.5421398    1.2973941   -1.1984656 
O    -0.3343417    1.4821610    2.3157837 
H     0.5348035    1.4101401    1.8606636 
H    -0.3797162    2.3986009    2.6294913 
O    -2.2749913    4.3768946    0.2339960 
H    -1.7988517    4.3462894   -0.6427551 
H    -2.9812564    5.0213482    0.1371479 
O    -0.9933823    4.1431644   -2.0843627 
H    -0.0298852    4.2701065   -2.0022747 
H    -1.1087883    3.2216193   -2.3688039 
O     1.6344386    1.3954288   -1.6918288 
H     0.6638061    1.3608461   -1.8412994 
H     1.8936812    2.3076806   -1.9040298 
O    -2.3215084    1.4785163    0.3929266 
H    -2.6250091    2.4001087    0.3878313 
H    -1.6192612    1.4525318    1.0812056 
O     1.8145415    4.2491098   -1.6499360 
H     2.4020909    4.8900295   -2.0585139 
H     1.9809374    4.2843100   -0.6721155 
O     2.1692949    4.1320169    1.0124794 
H     2.3810198    3.2011114    1.1933550 
H     1.3372868    4.3008339    1.4866278 
O     2.0958108    1.2695995    1.0227267 
H     2.4183264    0.3768526    1.2284758 
H     1.9353623    1.2702628    0.0520364 
