8
Energy =
C    -0.0000000    0.0000000    0.7632579 
C    -0.0000000   -0.0000000   -0.7632579 
H    -0.8806855    0.5084640    1.1578428 
H     0.0000000   -1.0169281    1.1578428 
H     0.8806855    0.5084640    1.1578428 
H     0.8806855   -0.5084640   -1.1578428 
H    -0.8806855   -0.5084640   -1.1578428 
H     0.0000000    1.0169281   -1.1578428 
