15
Energy =
O    -1.1268024   -1.5421147    1.3115375 
H    -0.7661903   -2.0208888    2.0619128 
H    -1.0425473   -0.5875811    1.5375504 
O     0.0803781   -2.0408214   -1.0866271 
H    -0.5297873   -2.5676517   -1.6076619 
H    -0.3615744   -1.8901965   -0.2198678 
O     0.8653564    2.1577269   -0.0051264 
H     0.9896838    1.5118344   -0.7375001 
H     1.7477174    2.4024394    0.2841736 
O    -0.7980209    1.1055424    1.8833964 
H    -0.1925383    1.5158527    1.2242825 
H    -1.5800472    1.6620636    1.9082724 
O     1.1675335    0.3103577   -1.9923084 
H     0.7679385    0.5364348   -2.8354387 
H     0.7789005   -0.5529975   -1.7265952 
