11
Energy =
C     0.0000000    0.0000000   -4.5737156 
C     0.0000000    0.0000000   -3.3658824 
C     0.0000000    0.0000000   -2.0106319 
C     0.0000000    0.0000000   -0.7943022 
C     0.0000000    0.0000000    0.5598923 
C     0.0000000    0.0000000    1.7700662 
C     0.0000000    0.0000000    3.2196007 
H     0.0000000    0.0000000   -5.6360271 
H    -0.5103590   -0.8839677    3.6103333 
H    -0.5103590    0.8839677    3.6103333 
H     1.0207180    0.0000000    3.6103333 
