18
Energy =
O    -2.1262430    0.9197498    1.8264958 
H    -2.1881222    1.4620146    2.6158476 
H    -1.5986358    1.4265182    1.1737716 
O    -0.6242004   -1.3533166    1.1757103 
H    -1.1988054   -0.6794287    1.5877759 
H     0.2729833   -0.9963075    1.2645231 
O     1.8287624    0.1754817    0.6422639 
H     2.0392499   -0.2029455   -0.2401564 
H     2.6632512    0.2979341    1.1013749 
O    -0.8422995   -0.8438539   -1.4490439 
H    -1.5454762   -1.3161820   -1.9016515 
H    -0.8613423   -1.1366364   -0.4986366 
O    -0.4537151    1.8328264   -0.1915392 
H    -0.7281657    1.1638105   -0.8364546 
H     0.4013688    1.5054304    0.1303423 
O     1.8922043   -0.9099854   -1.8706972 
H     2.1537551   -0.3720142   -2.6222492 
H     0.9154307   -0.9730955   -1.9076768 
