12
Energy =
O    -1.8507645    3.2056181    0.0000000 
C    -1.2533914    2.1709376    0.0000000 
C    -1.2139101    0.7146014    0.0000000 
C    -1.2139101   -0.7146014    0.0000000 
C    -1.2533914   -2.1709376    0.0000000 
O    -1.8507645   -3.2056181    0.0000000 
C    -0.0119079   -1.4085777    0.0000000 
C     1.2258181   -0.6939763    0.0000000 
C     2.5067828    0.0000000    0.0000000 
O     3.7015289    0.0000000    0.0000000 
C     1.2258181    0.6939763    0.0000000 
C    -0.0119079    1.4085777    0.0000000 
