12
Energy =
C    -1.1988024    0.6921286    0.0000000 
C    -1.1988024   -0.6921286    0.0000000 
C     0.0000000   -1.3842539    0.0000000 
C     1.1988024   -0.6921286    0.0000000 
C     1.1988024    0.6921286    0.0000000 
C     0.0000000    1.3842539    0.0000000 
H    -2.1331549   -1.2315778    0.0000000 
H     0.0000000   -2.4631518    0.0000000 
H     2.1331549   -1.2315778    0.0000000 
H     2.1331549    1.2315778    0.0000000 
H     0.0000000    2.4631518    0.0000000 
H    -2.1331549    1.2315778    0.0000000 
