14
Energy =
O     0.7941268   -0.1580495    2.0660393 
O    -0.0265990   -1.4686255    0.0000000 
H     0.8535437    1.3175680    0.7632695 
H    -0.0492092    0.0556879    2.4738562 
O     0.7060196    1.9061093    0.0000000 
H     0.8535437    1.3175680   -0.7632695 
O     0.7941268   -0.1580495   -2.0660393 
H    -0.0492092    0.0556879   -2.4738562 
H     0.5253029   -0.7667811   -1.2898742 
O    -2.0377301    0.3905888    0.0000000 
H    -1.3911533    1.1099929    0.0000000 
H    -1.4545847   -0.4079553    0.0000000 
H     0.5253029   -0.7667811    1.2898742 
H    -0.0434809   -2.4269609    0.0000000 
